/*--------------------------------*- C++ -*----------------------------------*\
| =========                 |                                                 |
| \\      /  F ield         | OpenFOAM: The Open Source CFD Toolbox           |
|  \\    /   O peration     | Version:  2.1.1                                 |
|   \\  /    A nd           | Web:      www.OpenFOAM.org                      |
|    \\/     M anipulation  |                                                 |
\*---------------------------------------------------------------------------*/
FoamFile
{
  version     2.0;
  format      ascii;
  class       dictionary;
  location    "constant";
  object      sourcesProperties;
}
// * * * * * * * * * * * * * * * * * * * * * * * * * * * * * * * * * * * * * //
 
TSource
{
    type            scalarExplicitSource;
    active          true;
    timeStart       0;
    duration        1000000;
    selectionMode   points;
    points
    (
        (1971.5 1496.2 0.2)
    );

    scalarExplicitSourceCoeffs
    {
        volumeMode      absolute;
        injectionRate
        {
            T   1.0;
        }
    }
}
Tr01Source
{
    type            scalarExplicitSource;
    active          true;
    timeStart       0;
    duration        1000000;
    selectionMode   points;
    points
    (
        (1769.3 1225.3 0.2)
    );

    scalarExplicitSourceCoeffs
    {
        volumeMode      absolute;
        injectionRate
        {
            Tr01   1.0;
        }
    }
}
Tr02Source
{
    type            scalarExplicitSource;
    active          true;
    timeStart       0;
    duration        1000000;
    selectionMode   points;
    points
    (
        (1882 1252.2 0.2)
    );

    scalarExplicitSourceCoeffs
    {
        volumeMode      absolute;
        injectionRate
        {
            Tr02   1.0;
        }
    }
}
Tr03Source
{
    type            scalarExplicitSource;
    active          true;
    timeStart       0;
    duration        1000000;
    selectionMode   points;
    points
    (
        (1998.8 1255.6 0.2)
    );

    scalarExplicitSourceCoeffs
    {
        volumeMode      absolute;
        injectionRate
        {
            Tr03   1.0;
        }
    }
}
Tr04Source
{
    type            scalarExplicitSource;
    active          true;
    timeStart       0;
    duration        1000000;
    selectionMode   points;
    points
    (
        (2053.8 1257.6 0.2)
    );

    scalarExplicitSourceCoeffs
    {
        volumeMode      absolute;
        injectionRate
        {
            Tr04   1.0;
        }
    }
}
Tr05Source
{
    type            scalarExplicitSource;
    active          true;
    timeStart       0;
    duration        1000000;
    selectionMode   points;
    points
    (
        (2196.3 1259.1 0.2)
    );

    scalarExplicitSourceCoeffs
    {
        volumeMode      absolute;
        injectionRate
        {
            Tr05   1.0;
        }
    }
}
Tr06Source
{
    type            scalarExplicitSource;
    active          true;
    timeStart       0;
    duration        1000000;
    selectionMode   points;
    points
    (
        (1605.4 1371.3 0.2)
    );

    scalarExplicitSourceCoeffs
    {
        volumeMode      absolute;
        injectionRate
        {
            Tr06   1.0;
        }
    }
}
Tr07Source
{
    type            scalarExplicitSource;
    active          true;
    timeStart       0;
    duration        1000000;
    selectionMode   points;
    points
    (
        (1761.5 1350 0.2)
    );

    scalarExplicitSourceCoeffs
    {
        volumeMode      absolute;
        injectionRate
        {
            Tr07   1.0;
        }
    }
}
Tr08Source
{
    type            scalarExplicitSource;
    active          true;
    timeStart       0;
    duration        1000000;
    selectionMode   points;
    points
    (
        (1920.4 1372.2 0.2)
    );

    scalarExplicitSourceCoeffs
    {
        volumeMode      absolute;
        injectionRate
        {
            Tr08   1.0;
        }
    }
}
Tr09Source
{
    type            scalarExplicitSource;
    active          true;
    timeStart       0;
    duration        1000000;
    selectionMode   points;
    points
    (
        (2088.6 1368.6 0.2)
    );

    scalarExplicitSourceCoeffs
    {
        volumeMode      absolute;
        injectionRate
        {
            Tr09   1.0;
        }
    }
}
Tr10Source
{
    type            scalarExplicitSource;
    active          true;
    timeStart       0;
    duration        1000000;
    selectionMode   points;
    points
    (
        (2212.4 1359.8 0.2)
    );

    scalarExplicitSourceCoeffs
    {
        volumeMode      absolute;
        injectionRate
        {
            Tr10   1.0;
        }
    }
}
Tr11Source
{
    type            scalarExplicitSource;
    active          true;
    timeStart       0;
    duration        1000000;
    selectionMode   points;
    points
    (
        (1598.6 1515.8 0.2)
    );

    scalarExplicitSourceCoeffs
    {
        volumeMode      absolute;
        injectionRate
        {
            Tr11   1.0;
        }
    }
}
Tr12Source
{
    type            scalarExplicitSource;
    active          true;
    timeStart       0;
    duration        1000000;
    selectionMode   points;
    points
    (
        (1744.9 1514.1 0.2)
    );

    scalarExplicitSourceCoeffs
    {
        volumeMode      absolute;
        injectionRate
        {
            Tr12   1.0;
        }
    }
}
Tr13Source
{
    type            scalarExplicitSource;
    active          true;
    timeStart       0;
    duration        1000000;
    selectionMode   points;
    points
    (
        (2214.1 1498.3 0.2)
    );

    scalarExplicitSourceCoeffs
    {
        volumeMode      absolute;
        injectionRate
        {
            Tr13   1.0;
        }
    }
}
Tr14Source
{
    type            scalarExplicitSource;
    active          true;
    timeStart       0;
    duration        1000000;
    selectionMode   points;
    points
    (
        (1465.8 1612.5 0.2)
    );

    scalarExplicitSourceCoeffs
    {
        volumeMode      absolute;
        injectionRate
        {
            Tr14   1.0;
        }
    }
}
Tr15Source
{
    type            scalarExplicitSource;
    active          true;
    timeStart       0;
    duration        1000000;
    selectionMode   points;
    points
    (
        (1625.7 1611.9 0.2)
    );

    scalarExplicitSourceCoeffs
    {
        volumeMode      absolute;
        injectionRate
        {
            Tr15   1.0;
        }
    }
}
Tr16Source
{
    type            scalarExplicitSource;
    active          true;
    timeStart       0;
    duration        1000000;
    selectionMode   points;
    points
    (
        (1765.5 1610.9 0.2)
    );

    scalarExplicitSourceCoeffs
    {
        volumeMode      absolute;
        injectionRate
        {
            Tr16   1.0;
        }
    }
}
Tr17Source
{
    type            scalarExplicitSource;
    active          true;
    timeStart       0;
    duration        1000000;
    selectionMode   points;
    points
    (
        (1904.1 1609.2 0.2)
    );

    scalarExplicitSourceCoeffs
    {
        volumeMode      absolute;
        injectionRate
        {
            Tr17   1.0;
        }
    }
}
Tr18Source
{
    type            scalarExplicitSource;
    active          true;
    timeStart       0;
    duration        1000000;
    selectionMode   points;
    points
    (
        (1982.9 1608.7 0.2)
    );

    scalarExplicitSourceCoeffs
    {
        volumeMode      absolute;
        injectionRate
        {
            Tr18   1.0;
        }
    }
}
Tr19Source
{
    type            scalarExplicitSource;
    active          true;
    timeStart       0;
    duration        1000000;
    selectionMode   points;
    points
    (
        (2089.5 1607 0.2)
    );

    scalarExplicitSourceCoeffs
    {
        volumeMode      absolute;
        injectionRate
        {
            Tr19   1.0;
        }
    }
}
Tr20Source
{
    type            scalarExplicitSource;
    active          true;
    timeStart       0;
    duration        1000000;
    selectionMode   points;
    points
    (
        (2214.9 1601.8 0.2)
    );

    scalarExplicitSourceCoeffs
    {
        volumeMode      absolute;
        injectionRate
        {
            Tr20   1.0;
        }
    }
}
Tr21Source
{
    type            scalarExplicitSource;
    active          true;
    timeStart       0;
    duration        1000000;
    selectionMode   points;
    points
    (
        (2330.5 1603.9 0.2)
    );

    scalarExplicitSourceCoeffs
    {
        volumeMode      absolute;
        injectionRate
        {
            Tr21   1.0;
        }
    }
}
Tr22Source
{
    type            scalarExplicitSource;
    active          true;
    timeStart       0;
    duration        1000000;
    selectionMode   points;
    points
    (
        (2489.1 1602 0.2)
    );

    scalarExplicitSourceCoeffs
    {
        volumeMode      absolute;
        injectionRate
        {
            Tr22   1.0;
        }
    }
}
Tr23Source
{
    type            scalarExplicitSource;
    active          true;
    timeStart       0;
    duration        1000000;
    selectionMode   points;
    points
    (
        (1470 1747.9 0.2)
    );

    scalarExplicitSourceCoeffs
    {
        volumeMode      absolute;
        injectionRate
        {
            Tr23   1.0;
        }
    }
}
Tr24Source
{
    type            scalarExplicitSource;
    active          true;
    timeStart       0;
    duration        1000000;
    selectionMode   points;
    points
    (
        (1608.5 1748.5 0.2)
    );

    scalarExplicitSourceCoeffs
    {
        volumeMode      absolute;
        injectionRate
        {
            Tr24   1.0;
        }
    }
}
Tr25Source
{
    type            scalarExplicitSource;
    active          true;
    timeStart       0;
    duration        1000000;
    selectionMode   points;
    points
    (
        (1745.6 1745.5 0.2)
    );

    scalarExplicitSourceCoeffs
    {
        volumeMode      absolute;
        injectionRate
        {
            Tr25   1.0;
        }
    }
}
Tr26Source
{
    type            scalarExplicitSource;
    active          true;
    timeStart       0;
    duration        1000000;
    selectionMode   points;
    points
    (
        (1886.1 1741.4 0.2)
    );

    scalarExplicitSourceCoeffs
    {
        volumeMode      absolute;
        injectionRate
        {
            Tr26   1.0;
        }
    }
}
Tr27Source
{
    type            scalarExplicitSource;
    active          true;
    timeStart       0;
    duration        1000000;
    selectionMode   points;
    points
    (
        (1980.9 1741.9 0.2)
    );

    scalarExplicitSourceCoeffs
    {
        volumeMode      absolute;
        injectionRate
        {
            Tr27   1.0;
        }
    }
}
Tr28Source
{
    type            scalarExplicitSource;
    active          true;
    timeStart       0;
    duration        1000000;
    selectionMode   points;
    points
    (
        (2065.9 1720.1 0.2)
    );

    scalarExplicitSourceCoeffs
    {
        volumeMode      absolute;
        injectionRate
        {
            Tr28   1.0;
        }
    }
}
Tr29Source
{
    type            scalarExplicitSource;
    active          true;
    timeStart       0;
    duration        1000000;
    selectionMode   points;
    points
    (
        (2233.1 1729.1 0.2)
    );

    scalarExplicitSourceCoeffs
    {
        volumeMode      absolute;
        injectionRate
        {
            Tr29   1.0;
        }
    }
}
Tr30Source
{
    type            scalarExplicitSource;
    active          true;
    timeStart       0;
    duration        1000000;
    selectionMode   points;
    points
    (
        (2341.8 1736.7 0.2)
    );

    scalarExplicitSourceCoeffs
    {
        volumeMode      absolute;
        injectionRate
        {
            Tr30   1.0;
        }
    }
}
Tr31Source
{
    type            scalarExplicitSource;
    active          true;
    timeStart       0;
    duration        1000000;
    selectionMode   points;
    points
    (
        (2471.9 1735.6 0.2)
    );

    scalarExplicitSourceCoeffs
    {
        volumeMode      absolute;
        injectionRate
        {
            Tr31   1.0;
        }
    }
}
Tr32Source
{
    type            scalarExplicitSource;
    active          true;
    timeStart       0;
    duration        1000000;
    selectionMode   points;
    points
    (
        (1627.3 1845.6 0.2)
    );

    scalarExplicitSourceCoeffs
    {
        volumeMode      absolute;
        injectionRate
        {
            Tr32   1.0;
        }
    }
}
Tr33Source
{
    type            scalarExplicitSource;
    active          true;
    timeStart       0;
    duration        1000000;
    selectionMode   points;
    points
    (
        (1766.4 1841.6 0.2)
    );

    scalarExplicitSourceCoeffs
    {
        volumeMode      absolute;
        injectionRate
        {
            Tr33   1.0;
        }
    }
}
Tr34Source
{
    type            scalarExplicitSource;
    active          true;
    timeStart       0;
    duration        1000000;
    selectionMode   points;
    points
    (
        (1907.3 1843.6 0.2)
    );

    scalarExplicitSourceCoeffs
    {
        volumeMode      absolute;
        injectionRate
        {
            Tr34   1.0;
        }
    }
}
Tr35Source
{
    type            scalarExplicitSource;
    active          true;
    timeStart       0;
    duration        1000000;
    selectionMode   points;
    points
    (
        (2089.7 1833.8 0.2)
    );

    scalarExplicitSourceCoeffs
    {
        volumeMode      absolute;
        injectionRate
        {
            Tr35   1.0;
        }
    }
}
Tr36Source
{
    type            scalarExplicitSource;
    active          true;
    timeStart       0;
    duration        1000000;
    selectionMode   points;
    points
    (
        (2232.2 1835.1 0.2)
    );

    scalarExplicitSourceCoeffs
    {
        volumeMode      absolute;
        injectionRate
        {
            Tr36   1.0;
        }
    }
}
Tr37Source
{
    type            scalarExplicitSource;
    active          true;
    timeStart       0;
    duration        1000000;
    selectionMode   points;
    points
    (
        (2345.4 1835.6 0.2)
    );

    scalarExplicitSourceCoeffs
    {
        volumeMode      absolute;
        injectionRate
        {
            Tr37   1.0;
        }
    }
}
Tr38Source
{
    type            scalarExplicitSource;
    active          true;
    timeStart       0;
    duration        1000000;
    selectionMode   points;
    points
    (
        (1629 1959.5 0.2)
    );

    scalarExplicitSourceCoeffs
    {
        volumeMode      absolute;
        injectionRate
        {
            Tr38   1.0;
        }
    }
}
Tr39Source
{
    type            scalarExplicitSource;
    active          true;
    timeStart       0;
    duration        1000000;
    selectionMode   points;
    points
    (
        (1750.1 1980.2 0.2)
    );

    scalarExplicitSourceCoeffs
    {
        volumeMode      absolute;
        injectionRate
        {
            Tr39   1.0;
        }
    }
}
Tr40Source
{
    type            scalarExplicitSource;
    active          true;
    timeStart       0;
    duration        1000000;
    selectionMode   points;
    points
    (
        (1908.3 1955.4 0.2)
    );

    scalarExplicitSourceCoeffs
    {
        volumeMode      absolute;
        injectionRate
        {
            Tr40   1.0;
        }
    }
}
Tr41Source
{
    type            scalarExplicitSource;
    active          true;
    timeStart       0;
    duration        1000000;
    selectionMode   points;
    points
    (
        (2066.1 1950.3 0.2)
    );

    scalarExplicitSourceCoeffs
    {
        volumeMode      absolute;
        injectionRate
        {
            Tr41   1.0;
        }
    }
}
Tr42Source
{
    type            scalarExplicitSource;
    active          true;
    timeStart       0;
    duration        1000000;
    selectionMode   points;
    points
    (
        (2216 1951.3 0.2)
    );

    scalarExplicitSourceCoeffs
    {
        volumeMode      absolute;
        injectionRate
        {
            Tr42   1.0;
        }
    }
}
Tr43Source
{
    type            scalarExplicitSource;
    active          true;
    timeStart       0;
    duration        1000000;
    selectionMode   points;
    points
    (
        (1888.4 2090.8 0.2)
    );

    scalarExplicitSourceCoeffs
    {
        volumeMode      absolute;
        injectionRate
        {
            Tr43   1.0;
        }
    }
}
Tr44Source
{
    type            scalarExplicitSource;
    active          true;
    timeStart       0;
    duration        1000000;
    selectionMode   points;
    points
    (
        (2062.6 2090.3 0.2)
    );

    scalarExplicitSourceCoeffs
    {
        volumeMode      absolute;
        injectionRate
        {
            Tr44   1.0;
        }
    }
}
// ************************************************************************* //
